
Generated by Molecular Materials Informatics

 24 24  0  0  0  0  0  0  0  0999 V2000
    0.9292    2.4214    0.0000 C   0  0  0  0  0  0  0  0  0  0  0  0
   -0.2843    1.5397    0.0000 C   0  0  0  0  0  0  0  0  0  0  0  0
    0.1792    0.1131    0.0000 C   0  0  0  0  0  0  0  0  0  0  0  0
    1.6792    0.1131    0.0000 C   0  0  0  0  0  0  0  0  0  0  0  0
    2.1427    1.5397    0.0000 C   0  0  0  0  0  0  0  0  0  0  0  0
    0.9292    3.9214    0.0000 C   0  0  0  0  0  0  0  0  0  0  0  0
    3.5693    2.0033    0.0000 O   0  0  0  0  0  0  0  0  0  0  0  0
    2.5609   -1.1004    0.0000 C   0  0  0  0  0  0  0  0  0  0  0  0
   -1.7109    2.0033    0.0000 N   0  0  0  0  0  0  0  0  0  0  0  0
   -0.4073    3.1024    0.0000 H   0  0  0  0  0  0  0  0  0  0  0  0
   -2.8256    0.9996    0.0000 C   0  0  0  0  0  0  0  0  0  0  0  0
   -4.2522    1.4631    0.0000 N   0  0  0  0  0  0  0  0  0  0  0  0
   -2.5137   -0.4677    0.0000 N   0  0  0  0  0  0  0  0  0  0  0  0
    1.9508   -2.4707    0.0000 O   0  0  0  0  0  0  0  0  0  0  0  0
    4.0527   -0.9436    0.0000 O   0  0  0  0  0  0  0  0  0  0  0  0
    2.2283    4.6714    0.0000 C   0  0  0  0  0  0  0  0  0  0  0  0
   -0.3698    4.6714    0.0000 N   0  0  0  0  0  0  0  0  0  0  0  0
   -0.3698    6.1714    0.0000 C   0  0  0  0  0  0  0  0  0  0  0  0
   -1.6689    6.9214    0.0000 C   0  0  0  0  0  0  0  0  0  0  0  0
    0.9292    6.9214    0.0000 O   0  0  0  0  0  0  0  0  0  0  0  0
    3.5273    3.9214    0.0000 C   0  0  0  0  0  0  0  0  0  0  0  0
    2.2283    6.1714    0.0000 C   0  0  0  0  0  0  0  0  0  0  0  0
    3.5273    6.9214    0.0000 C   0  0  0  0  0  0  0  0  0  0  0  0
    4.8263    4.6714    0.0000 C   0  0  0  0  0  0  0  0  0  0  0  0
  1  2  1  0  0  0  0
  2  3  1  0  0  0  0
  3  4  1  0  0  0  0
  4  5  1  0  0  0  0
  5  1  1  0  0  0  0
  1  6  1  0  0  0  0
  5  7  1  6  0  0  0
  4  8  1  1  0  0  0
  2  9  1  0  0  0  0
  1 10  1  1  0  0  0
  9 11  1  0  0  0  0
 11 12  2  0  0  0  0
 11 13  1  0  0  0  0
  8 14  2  0  0  0  0
  8 15  1  0  0  0  0
  6 16  1  0  0  0  0
  6 17  1  1  0  0  0
 17 18  1  0  0  0  0
 18 19  1  0  0  0  0
 18 20  2  0  0  0  0
 16 21  1  0  0  0  0
 16 22  1  0  0  0  0
 22 23  1  0  0  0  0
 21 24  1  0  0  0  0
M  END
> <Name>
rapivab

$$$$

Generated by Molecular Materials Informatics

 32 36  0  0  0  0  0  0  0  0999 V2000
   -4.3530    6.7794    0.0000 C   0  0  0  0  0  0  0  0  0  0  0  0
   -5.6520    6.0294    0.0000 C   0  0  0  0  0  0  0  0  0  0  0  0
   -5.6520    4.5294    0.0000 C   0  0  0  0  0  0  0  0  0  0  0  0
   -4.3530    3.7794    0.0000 C   0  0  0  0  0  0  0  0  0  0  0  0
   -3.0539    4.5294    0.0000 C   0  0  0  0  0  0  0  0  0  0  0  0
   -3.0539    6.0294    0.0000 C   0  0  0  0  0  0  0  0  0  0  0  0
   -1.7549    3.7794    0.0000 C   0  0  0  0  0  0  0  0  0  0  0  0
   -0.4559    4.5294    0.0000 N   0  0  0  0  0  0  0  0  0  0  0  0
   -0.4559    6.0294    0.0000 N   0  0  0  0  0  0  0  0  0  0  0  0
   -1.7549    6.7794    0.0000 C   0  0  0  0  0  0  0  0  0  0  0  0
   -1.7549    2.2794    0.0000 O   0  0  0  0  0  0  0  0  0  0  0  0
   -1.7549    8.2794    0.0000 C   0  0  0  0  0  0  0  0  0  0  0  0
   -0.4559    9.0294    0.0000 C   0  0  0  0  0  0  0  0  0  0  0  0
    0.8432    8.2794    0.0000 C   0  0  0  0  0  0  0  0  0  0  0  0
    2.1422    9.0294    0.0000 C   0  0  0  0  0  0  0  0  0  0  0  0
    2.1422   10.5294    0.0000 C   0  0  0  0  0  0  0  0  0  0  0  0
    0.8432   11.2794    0.0000 C   0  0  0  0  0  0  0  0  0  0  0  0
   -0.4559   10.5294    0.0000 C   0  0  0  0  0  0  0  0  0  0  0  0
    3.4413   11.2794    0.0000 F   0  0  0  0  0  0  0  0  0  0  0  0
    3.4413    8.2794    0.0000 C   0  0  0  0  0  0  0  0  0  0  0  0
    4.7403    9.0294    0.0000 N   0  0  0  0  0  0  0  0  0  0  0  0
    3.4413    6.7794    0.0000 O   0  0  0  0  0  0  0  0  0  0  0  0
    6.0393    8.2794    0.0000 C   0  0  0  0  0  0  0  0  0  0  0  0
    7.3384    9.0294    0.0000 C   0  0  0  0  0  0  0  0  0  0  0  0
    7.3384   10.5294    0.0000 N   0  0  0  0  0  0  0  0  0  0  0  0
    6.0393   11.2794    0.0000 C   0  0  0  0  0  0  0  0  0  0  0  0
    4.7403   10.5294    0.0000 C   0  0  0  0  0  0  0  0  0  0  0  0
    8.6374   11.2794    0.0000 C   0  0  0  0  0  0  0  0  0  0  0  0
    9.9365   10.5294    0.0000 C   0  0  0  0  0  0  0  0  0  0  0  0
    8.6374   12.7794    0.0000 O   0  0  0  0  0  0  0  0  0  0  0  0
   10.6865    9.2303    0.0000 C   0  0  0  0  0  0  0  0  0  0  0  0
   11.4365   10.5294    0.0000 C   0  0  0  0  0  0  0  0  0  0  0  0
  1  2  2  0  0  0  0
  2  3  1  0  0  0  0
  3  4  2  0  0  0  0
  4  5  1  0  0  0  0
  5  6  2  0  0  0  0
  6  1  1  0  0  0  0
  5  7  1  0  0  0  0
  7  8  1  0  0  0  0
  8  9  1  0  0  0  0
  9 10  2  0  0  0  0
 10  6  1  0  0  0  0
  7 11  2  0  0  0  0
 10 12  1  0  0  0  0
 12 13  1  0  0  0  0
 13 14  2  0  0  0  0
 14 15  1  0  0  0  0
 15 16  2  0  0  0  0
 16 17  1  0  0  0  0
 17 18  2  0  0  0  0
 18 13  1  0  0  0  0
 16 19  1  0  0  0  0
 15 20  1  0  0  0  0
 20 21  1  0  0  0  0
 20 22  2  0  0  0  0
 21 23  1  0  0  0  0
 23 24  1  0  0  0  0
 24 25  1  0  0  0  0
 25 26  1  0  0  0  0
 26 27  1  0  0  0  0
 27 21  1  0  0  0  0
 25 28  1  0  0  0  0
 28 29  1  0  0  0  0
 28 30  2  0  0  0  0
 29 31  1  0  0  0  0
 31 32  1  0  0  0  0
 32 29  1  0  0  0  0
M  END
> <Name>
olaparib

$$$$

Generated by Molecular Materials Informatics

 50 53  0  0  0  0  0  0  0  0999 V2000
    0.0000    0.0000    0.0000 N   0  0  0  0  0  0  0  0  0  0  0  0
   -1.2990    0.7500    0.0000 C   0  0  0  0  0  0  0  0  0  0  0  0
    1.2990    0.7500    0.0000 C   0  0  0  0  0  0  0  0  0  0  0  0
   -2.5981   -0.0000    0.0000 C   0  0  0  0  0  0  0  0  0  0  0  0
   -1.2990    2.2500    0.0000 O   0  0  0  0  0  0  0  0  0  0  0  0
   -3.8971    0.7500    0.0000 N   0  0  0  0  0  0  0  0  0  0  0  0
   -2.5981   -1.5000    0.0000 C   0  0  0  0  0  0  0  0  0  0  0  0
   -3.8971   -2.2500    0.0000 C   0  0  0  0  0  0  0  0  0  0  0  0
   -1.2990   -2.2500    0.0000 C   0  0  0  0  0  0  0  0  0  0  0  0
   -5.1962   -0.0000    0.0000 C   0  0  0  0  0  0  0  0  0  0  0  0
   -6.4952    0.7500    0.0000 N   0  0  0  0  0  0  0  0  0  0  0  0
   -5.1962   -1.5000    0.0000 O   0  0  0  0  0  0  0  0  0  0  0  0
   -7.7942   -0.0000    0.0000 C   0  0  0  0  0  0  0  0  0  0  0  0
   -6.4952    2.2500    0.0000 C   0  0  0  0  0  0  0  0  0  0  0  0
   -7.7942    3.0000    0.0000 C   0  0  0  0  0  0  0  0  0  0  0  0
   -7.9510    4.4918    0.0000 C   0  0  0  0  0  0  0  0  0  0  0  0
   -9.4182    4.8036    0.0000 S   0  0  0  0  0  0  0  0  0  0  0  0
  -10.1682    3.5046    0.0000 C   0  0  0  0  0  0  0  0  0  0  0  0
   -9.1645    2.3899    0.0000 N   0  0  0  0  0  0  0  0  0  0  0  0
  -11.6600    3.3478    0.0000 C   0  0  0  0  0  0  0  0  0  0  0  0
  -12.5417    4.5613    0.0000 C   0  0  0  0  0  0  0  0  0  0  0  0
  -12.2701    1.9775    0.0000 C   0  0  0  0  0  0  0  0  0  0  0  0
    2.5981    0.0000    0.0000 C   0  0  0  0  0  0  0  0  0  0  0  0
    1.2990    2.2500    0.0000 C   0  0  0  0  0  0  0  0  0  0  0  0
    0.2384    3.3107    0.0000 C   0  0  0  0  0  0  0  0  0  0  0  0
    0.6266    4.7595    0.0000 C   0  0  0  0  0  0  0  0  0  0  0  0
   -0.4341    5.8202    0.0000 C   0  0  0  0  0  0  0  0  0  0  0  0
   -1.8829    5.4320    0.0000 C   0  0  0  0  0  0  0  0  0  0  0  0
   -2.2712    3.9831    0.0000 C   0  0  0  0  0  0  0  0  0  0  0  0
   -1.2105    2.9224    0.0000 C   0  0  0  0  0  0  0  0  0  0  0  0
    3.8971    0.7500    0.0000 C   0  0  0  0  0  0  0  0  0  0  0  0
    5.1962    0.0000    0.0000 C   0  0  0  0  0  0  0  0  0  0  0  0
    3.8971    2.2500    0.0000 O   0  0  0  0  0  0  0  0  0  0  0  0
    6.4952    0.7500    0.0000 N   0  0  0  0  0  0  0  0  0  0  0  0
    5.1962   -1.5000    0.0000 C   0  0  0  0  0  0  0  0  0  0  0  0
    3.8971   -2.2500    0.0000 C   0  0  0  0  0  0  0  0  0  0  0  0
    2.5981   -1.5000    0.0000 C   0  0  0  0  0  0  0  0  0  0  0  0
    1.2990   -2.2500    0.0000 C   0  0  0  0  0  0  0  0  0  0  0  0
    1.2990   -3.7500    0.0000 C   0  0  0  0  0  0  0  0  0  0  0  0
    2.5981   -4.5000    0.0000 C   0  0  0  0  0  0  0  0  0  0  0  0
    3.8971   -3.7500    0.0000 C   0  0  0  0  0  0  0  0  0  0  0  0
    7.7942    0.0000    0.0000 C   0  0  0  0  0  0  0  0  0  0  0  0
    9.0933    0.7500    0.0000 O   0  0  0  0  0  0  0  0  0  0  0  0
    7.7942   -1.5000    0.0000 O   0  0  0  0  0  0  0  0  0  0  0  0
   10.3923    0.0000    0.0000 C   0  0  0  0  0  0  0  0  0  0  0  0
   11.6913    0.7500    0.0000 C   0  0  0  0  0  0  0  0  0  0  0  0
   13.0617    0.1399    0.0000 S   0  0  0  0  0  0  0  0  0  0  0  0
   14.0654    1.2546    0.0000 C   0  0  0  0  0  0  0  0  0  0  0  0
   13.3154    2.5537    0.0000 N   0  0  0  0  0  0  0  0  0  0  0  0
   11.8481    2.2418    0.0000 C   0  0  0  0  0  0  0  0  0  0  0  0
  1  2  1  0  0  0  0
  1  3  1  0  0  0  0
  2  4  1  0  0  0  0
  2  5  2  0  0  0  0
  4  6  1  0  0  0  0
  4  7  1  6  0  0  0
  7  8  1  0  0  0  0
  7  9  1  0  0  0  0
  6 10  1  0  0  0  0
 10 11  1  0  0  0  0
 10 12  2  0  0  0  0
 11 13  1  0  0  0  0
 11 14  1  0  0  0  0
 14 15  1  0  0  0  0
 15 16  2  0  0  0  0
 16 17  1  0  0  0  0
 17 18  1  0  0  0  0
 18 19  2  0  0  0  0
 19 15  1  0  0  0  0
 18 20  1  0  0  0  0
 20 21  1  0  0  0  0
 20 22  1  0  0  0  0
  3 23  1  0  0  0  0
  3 24  1  1  0  0  0
 24 25  1  0  0  0  0
 25 26  2  0  0  0  0
 26 27  1  0  0  0  0
 27 28  2  0  0  0  0
 28 29  1  0  0  0  0
 29 30  2  0  0  0  0
 30 25  1  0  0  0  0
 23 31  1  0  0  0  0
 31 32  1  0  0  0  0
 31 33  1  6  0  0  0
 32 34  1  0  0  0  0
 32 35  1  1  0  0  0
 35 36  1  0  0  0  0
 36 37  2  0  0  0  0
 37 38  1  0  0  0  0
 38 39  2  0  0  0  0
 39 40  1  0  0  0  0
 40 41  2  0  0  0  0
 41 36  1  0  0  0  0
 34 42  1  0  0  0  0
 42 43  1  0  0  0  0
 42 44  2  0  0  0  0
 43 45  1  0  0  0  0
 45 46  1  0  0  0  0
 46 47  1  0  0  0  0
 47 48  1  0  0  0  0
 48 49  2  0  0  0  0
 49 50  1  0  0  0  0
 50 46  2  0  0  0  0
M  END
> <Name>
ritonavir

$$$$

Generated by Molecular Materials Informatics

 56 63  0  0  0  0  0  0  0  0999 V2000
   -0.4086    2.2978    0.0000 C   0  0  0  0  0  0  0  0  0  0  0  0
   -1.6221    1.4161    0.0000 C   0  0  0  0  0  0  0  0  0  0  0  0
   -1.1586   -0.0105    0.0000 N   0  0  0  0  0  0  0  0  0  0  0  0
    0.3414   -0.0105    0.0000 C   0  0  0  0  0  0  0  0  0  0  0  0
    0.8049    1.4161    0.0000 C   0  0  0  0  0  0  0  0  0  0  0  0
   -2.3077   -0.9746    0.0000 C   0  0  0  0  0  0  0  0  0  0  0  0
   -2.5681   -2.4518    0.0000 C   0  0  0  0  0  0  0  0  0  0  0  0
   -1.8181   -3.7509    0.0000 C   0  0  0  0  0  0  0  0  0  0  0  0
   -0.5912   -4.5630    0.0000 C   0  0  0  0  0  0  0  0  0  0  0  0
    0.8824   -4.4371    0.0000 C   0  0  0  0  0  0  0  0  0  0  0  0
    1.7322   -3.5816    0.0000 C   0  0  0  0  0  0  0  0  0  0  0  0
    1.2231   -1.2240    0.0000 C   0  0  0  0  0  0  0  0  0  0  0  0
    3.0563   -4.5127    0.0000 C   0  0  0  0  0  0  0  0  0  0  0  0
    4.0691   -4.0645    0.0000 C   0  0  0  0  0  0  0  0  0  0  0  0
    5.2469   -3.1356    0.0000 C   0  0  0  0  0  0  0  0  0  0  0  0
    5.4228   -1.6459    0.0000 C   0  0  0  0  0  0  0  0  0  0  0  0
    4.4939   -0.4682    0.0000 C   0  0  0  0  0  0  0  0  0  0  0  0
    3.0043   -0.2922    0.0000 N   0  0  0  0  0  0  0  0  0  0  0  0
   -3.6067   -0.2246    0.0000 O   0  0  0  0  0  0  0  0  0  0  0  0
   -4.0453   -2.7123    0.0000 N   0  0  0  0  0  0  0  0  0  0  0  0
   -4.5584   -4.1219    0.0000 C   0  0  0  0  0  0  0  0  0  0  0  0
   -6.0356   -4.3823    0.0000 C   0  0  0  0  0  0  0  0  0  0  0  0
   -3.5942   -5.2709    0.0000 O   0  0  0  0  0  0  0  0  0  0  0  0
   -6.9998   -3.2333    0.0000 N   0  0  0  0  0  0  0  0  0  0  0  0
   -8.4770   -3.4937    0.0000 C   0  0  0  0  0  0  0  0  0  0  0  0
   -8.9900   -4.9033    0.0000 C   0  0  0  0  0  0  0  0  0  0  0  0
   -8.0258   -6.0523    0.0000 N   0  0  0  0  0  0  0  0  0  0  0  0
   -6.5486   -5.7919    0.0000 C   0  0  0  0  0  0  0  0  0  0  0  0
  -10.4672   -5.1637    0.0000 C   0  0  0  0  0  0  0  0  0  0  0  0
   -0.3396   -1.3470    0.0000 H   0  0  0  0  0  0  0  0  0  0  0  0
    0.8807   -2.6844    0.0000 O   0  0  0  0  0  0  0  0  0  0  0  0
    5.9784   -0.2526    0.0000 C   0  0  0  0  0  0  0  0  0  0  0  0
    4.4740    1.0317    0.0000 C   0  0  0  0  0  0  0  0  0  0  0  0
    5.7629    1.7989    0.0000 N   0  0  0  0  0  0  0  0  0  0  0  0
    3.1650    1.7643    0.0000 O   0  0  0  0  0  0  0  0  0  0  0  0
    5.7429    3.2988    0.0000 S   0  0  0  0  0  0  0  0  0  0  0  0
    4.2430    3.2788    0.0000 O   0  0  0  0  0  0  0  0  0  0  0  0
    7.2428    3.3188    0.0000 O   0  0  0  0  0  0  0  0  0  0  0  0
    5.7229    4.7987    0.0000 C   0  0  0  0  0  0  0  0  0  0  0  0
    6.4556    6.1076    0.0000 C   0  0  0  0  0  0  0  0  0  0  0  0
    4.9557    6.0876    0.0000 C   0  0  0  0  0  0  0  0  0  0  0  0
   -0.4086    3.7978    0.0000 O   0  0  0  0  0  0  0  0  0  0  0  0
   -1.7076    4.5478    0.0000 C   0  0  0  0  0  0  0  0  0  0  0  0
   -1.7076    6.0478    0.0000 C   0  0  0  0  0  0  0  0  0  0  0  0
   -3.0067    6.7978    0.0000 C   0  0  0  0  0  0  0  0  0  0  0  0
   -4.3057    6.0478    0.0000 C   0  0  0  0  0  0  0  0  0  0  0  0
   -4.3057    4.5478    0.0000 C   0  0  0  0  0  0  0  0  0  0  0  0
   -3.0067    3.7978    0.0000 N   0  0  0  0  0  0  0  0  0  0  0  0
   -5.6047    6.7978    0.0000 C   0  0  0  0  0  0  0  0  0  0  0  0
   -6.9038    6.0478    0.0000 C   0  0  0  0  0  0  0  0  0  0  0  0
   -6.9038    4.5478    0.0000 C   0  0  0  0  0  0  0  0  0  0  0  0
   -5.6047    3.7978    0.0000 C   0  0  0  0  0  0  0  0  0  0  0  0
   -0.4086    6.7978    0.0000 C   0  0  0  0  0  0  0  0  0  0  0  0
   -0.4086    8.2978    0.0000 C   0  0  0  0  0  0  0  0  0  0  0  0
   -1.7076    9.0478    0.0000 C   0  0  0  0  0  0  0  0  0  0  0  0
   -3.0067    8.2978    0.0000 C   0  0  0  0  0  0  0  0  0  0  0  0
  1  2  1  0  0  0  0
  2  3  1  0  0  0  0
  3  4  1  0  0  0  0
  4  5  1  0  0  0  0
  5  1  1  0  0  0  0
  3  6  1  0  0  0  0
  6  7  1  0  0  0  0
  7  8  1  0  0  0  0
  8  9  1  0  0  0  0
  9 10  1  0  0  0  0
 10 11  1  0  0  0  0
  4 12  1  0  0  0  0
 11 13  1  0  0  0  0
 13 14  1  0  0  0  0
 14 15  2  0  0  0  0
 15 16  1  0  0  0  0
 16 17  1  0  0  0  0
 17 18  1  0  0  0  0
 18 12  1  0  0  0  0
  6 19  2  0  0  0  0
  7 20  1  6  0  0  0
 20 21  1  0  0  0  0
 21 22  1  0  0  0  0
 21 23  2  0  0  0  0
 22 24  2  0  0  0  0
 24 25  1  0  0  0  0
 25 26  2  0  0  0  0
 26 27  1  0  0  0  0
 27 28  2  0  0  0  0
 28 22  1  0  0  0  0
 26 29  1  0  0  0  0
  4 30  1  6  0  0  0
 12 31  2  0  0  0  0
 16 32  1  1  0  0  0
 17 32  1  6  0  0  0
 17 33  1  0  0  0  0
 33 34  1  0  0  0  0
 33 35  2  0  0  0  0
 34 36  1  0  0  0  0
 36 37  2  0  0  0  0
 36 38  2  0  0  0  0
 36 39  1  0  0  0  0
 39 40  1  0  0  0  0
 40 41  1  0  0  0  0
 41 39  1  0  0  0  0
  1 42  1  6  0  0  0
 42 43  1  0  0  0  0
 43 44  2  0  0  0  0
 44 45  1  0  0  0  0
 45 46  2  0  0  0  0
 46 47  1  0  0  0  0
 47 48  2  0  0  0  0
 48 43  1  0  0  0  0
 46 49  1  0  0  0  0
 49 50  2  0  0  0  0
 50 51  1  0  0  0  0
 51 52  2  0  0  0  0
 52 47  1  0  0  0  0
 44 53  1  0  0  0  0
 53 54  2  0  0  0  0
 54 55  1  0  0  0  0
 55 56  2  0  0  0  0
 56 45  1  0  0  0  0
M  END
> <Name>
paritaprevir

$$$$

Generated by Molecular Materials Informatics

 65 70  0  0  0  0  0  0  0  0999 V2000
    0.0000    0.0000    0.0000 N   0  0  0  0  0  0  0  0  0  0  0  0
   -1.2135   -0.8817    0.0000 C   0  0  0  0  0  0  0  0  0  0  0  0
   -0.7500   -2.3083    0.0000 C   0  0  0  0  0  0  0  0  0  0  0  0
    0.7500   -2.3083    0.0000 C   0  0  0  0  0  0  0  0  0  0  0  0
    1.2135   -0.8817    0.0000 C   0  0  0  0  0  0  0  0  0  0  0  0
    0.0000    1.5000    0.0000 C   0  0  0  0  0  0  0  0  0  0  0  0
   -2.6401   -0.4182    0.0000 C   0  0  0  0  0  0  0  0  0  0  0  0
    2.6401   -0.4182    0.0000 C   0  0  0  0  0  0  0  0  0  0  0  0
    1.2990    2.2500    0.0000 C   0  0  0  0  0  0  0  0  0  0  0  0
    1.2990    3.7500    0.0000 C   0  0  0  0  0  0  0  0  0  0  0  0
   -0.0000    4.5000    0.0000 C   0  0  0  0  0  0  0  0  0  0  0  0
   -1.2990    3.7500    0.0000 C   0  0  0  0  0  0  0  0  0  0  0  0
   -1.2990    2.2500    0.0000 C   0  0  0  0  0  0  0  0  0  0  0  0
   -0.0000    6.0000    0.0000 C   0  0  0  0  0  0  0  0  0  0  0  0
    1.2990    6.7500    0.0000 C   0  0  0  0  0  0  0  0  0  0  0  0
   -1.2990    6.7500    0.0000 C   0  0  0  0  0  0  0  0  0  0  0  0
   -0.0000    7.5000    0.0000 C   0  0  0  0  0  0  0  0  0  0  0  0
    3.7548   -1.4218    0.0000 C   0  0  0  0  0  0  0  0  0  0  0  0
    5.1814   -0.9583    0.0000 C   0  0  0  0  0  0  0  0  0  0  0  0
    5.4933    0.5089    0.0000 C   0  0  0  0  0  0  0  0  0  0  0  0
    4.3786    1.5126    0.0000 C   0  0  0  0  0  0  0  0  0  0  0  0
    2.9520    1.0491    0.0000 C   0  0  0  0  0  0  0  0  0  0  0  0
    6.9199    0.9724    0.0000 N   0  0  0  0  0  0  0  0  0  0  0  0
    8.0346   -0.0313    0.0000 C   0  0  0  0  0  0  0  0  0  0  0  0
    9.4612    0.4323    0.0000 C   0  0  0  0  0  0  0  0  0  0  0  0
    7.7227   -1.4985    0.0000 O   0  0  0  0  0  0  0  0  0  0  0  0
   10.6747   -0.4494    0.0000 N   0  0  0  0  0  0  0  0  0  0  0  0
   11.8882    0.4323    0.0000 C   0  0  0  0  0  0  0  0  0  0  0  0
   11.4247    1.8588    0.0000 C   0  0  0  0  0  0  0  0  0  0  0  0
    9.9247    1.8588    0.0000 C   0  0  0  0  0  0  0  0  0  0  0  0
   10.6747   -1.9494    0.0000 C   0  0  0  0  0  0  0  0  0  0  0  0
   11.9737   -2.6994    0.0000 C   0  0  0  0  0  0  0  0  0  0  0  0
    9.3757   -2.6994    0.0000 O   0  0  0  0  0  0  0  0  0  0  0  0
   11.9737   -4.1994    0.0000 N   0  0  0  0  0  0  0  0  0  0  0  0
   13.2728   -1.9494    0.0000 C   0  0  0  0  0  0  0  0  0  0  0  0
   14.5718   -2.6994    0.0000 C   0  0  0  0  0  0  0  0  0  0  0  0
   13.2728   -0.4494    0.0000 C   0  0  0  0  0  0  0  0  0  0  0  0
   13.2728   -4.9494    0.0000 C   0  0  0  0  0  0  0  0  0  0  0  0
   13.2728   -6.4494    0.0000 O   0  0  0  0  0  0  0  0  0  0  0  0
   14.5718   -4.1994    0.0000 O   0  0  0  0  0  0  0  0  0  0  0  0
   15.8708   -4.9494    0.0000 C   0  0  0  0  0  0  0  0  0  0  0  0
   -3.7548   -1.4217    0.0000 C   0  0  0  0  0  0  0  0  0  0  0  0
   -5.1814   -0.9582    0.0000 C   0  0  0  0  0  0  0  0  0  0  0  0
   -5.4933    0.5090    0.0000 C   0  0  0  0  0  0  0  0  0  0  0  0
   -4.3786    1.5127    0.0000 C   0  0  0  0  0  0  0  0  0  0  0  0
   -2.9520    1.0492    0.0000 C   0  0  0  0  0  0  0  0  0  0  0  0
   -6.9199    0.9725    0.0000 N   0  0  0  0  0  0  0  0  0  0  0  0
   -8.0346   -0.0311    0.0000 C   0  0  0  0  0  0  0  0  0  0  0  0
   -9.4612    0.4325    0.0000 C   0  0  0  0  0  0  0  0  0  0  0  0
   -7.7227   -1.4984    0.0000 O   0  0  0  0  0  0  0  0  0  0  0  0
  -10.6747   -0.4492    0.0000 N   0  0  0  0  0  0  0  0  0  0  0  0
  -11.8882    0.4325    0.0000 C   0  0  0  0  0  0  0  0  0  0  0  0
  -11.4247    1.8590    0.0000 C   0  0  0  0  0  0  0  0  0  0  0  0
   -9.9247    1.8590    0.0000 C   0  0  0  0  0  0  0  0  0  0  0  0
  -10.6747   -1.9492    0.0000 C   0  0  0  0  0  0  0  0  0  0  0  0
  -11.9738   -2.6992    0.0000 C   0  0  0  0  0  0  0  0  0  0  0  0
   -9.3758   -2.6992    0.0000 O   0  0  0  0  0  0  0  0  0  0  0  0
  -11.9738   -4.1992    0.0000 N   0  0  0  0  0  0  0  0  0  0  0  0
  -13.2728   -1.9491    0.0000 C   0  0  0  0  0  0  0  0  0  0  0  0
  -14.5719   -2.6991    0.0000 C   0  0  0  0  0  0  0  0  0  0  0  0
  -13.2728   -0.4491    0.0000 C   0  0  0  0  0  0  0  0  0  0  0  0
  -13.2729   -4.9491    0.0000 C   0  0  0  0  0  0  0  0  0  0  0  0
  -13.2729   -6.4491    0.0000 O   0  0  0  0  0  0  0  0  0  0  0  0
  -14.5719   -4.1991    0.0000 O   0  0  0  0  0  0  0  0  0  0  0  0
  -15.8709   -4.9491    0.0000 C   0  0  0  0  0  0  0  0  0  0  0  0
  1  2  1  0  0  0  0
  2  3  1  0  0  0  0
  3  4  1  0  0  0  0
  4  5  1  0  0  0  0
  5  1  1  0  0  0  0
  1  6  1  0  0  0  0
  2  7  1  1  0  0  0
  5  8  1  6  0  0  0
  6  9  2  0  0  0  0
  9 10  1  0  0  0  0
 10 11  2  0  0  0  0
 11 12  1  0  0  0  0
 12 13  2  0  0  0  0
 13  6  1  0  0  0  0
 11 14  1  0  0  0  0
 14 15  1  0  0  0  0
 14 16  1  0  0  0  0
 14 17  1  0  0  0  0
  8 18  2  0  0  0  0
 18 19  1  0  0  0  0
 19 20  2  0  0  0  0
 20 21  1  0  0  0  0
 21 22  2  0  0  0  0
 22  8  1  0  0  0  0
 20 23  1  0  0  0  0
 23 24  1  0  0  0  0
 25 24  1  6  0  0  0
 24 26  2  0  0  0  0
 25 27  1  0  0  0  0
 27 28  1  0  0  0  0
 28 29  1  0  0  0  0
 29 30  1  0  0  0  0
 30 25  1  0  0  0  0
 27 31  1  0  0  0  0
 31 32  1  0  0  0  0
 31 33  2  0  0  0  0
 32 34  1  6  0  0  0
 32 35  1  0  0  0  0
 35 36  1  0  0  0  0
 35 37  1  0  0  0  0
 34 38  1  0  0  0  0
 38 39  2  0  0  0  0
 38 40  1  0  0  0  0
 40 41  1  0  0  0  0
  7 42  2  0  0  0  0
 42 43  1  0  0  0  0
 43 44  2  0  0  0  0
 44 45  1  0  0  0  0
 45 46  2  0  0  0  0
 46  7  1  0  0  0  0
 44 47  1  0  0  0  0
 47 48  1  0  0  0  0
 49 48  1  1  0  0  0
 48 50  2  0  0  0  0
 49 51  1  0  0  0  0
 51 52  1  0  0  0  0
 52 53  1  0  0  0  0
 53 54  1  0  0  0  0
 54 49  1  0  0  0  0
 51 55  1  0  0  0  0
 55 56  1  0  0  0  0
 55 57  2  0  0  0  0
 56 58  1  1  0  0  0
 56 59  1  0  0  0  0
 59 60  1  0  0  0  0
 59 61  1  0  0  0  0
 58 62  1  0  0  0  0
 62 63  2  0  0  0  0
 62 64  1  0  0  0  0
 64 65  1  0  0  0  0
M  END
> <Name>
ombitasvir

$$$$

Generated by Molecular Materials Informatics

 14 15  0  0  0  0  0  0  0  0999 V2000
   -0.7573   -0.8053    0.0000 C   0  0  0  0  0  0  0  0  0  0  0  0
   -2.0564   -1.5553    0.0000 C   0  0  0  0  0  0  0  0  0  0  0  0
   -2.0564   -3.0553    0.0000 C   0  0  0  0  0  0  0  0  0  0  0  0
   -0.7573   -3.8053    0.0000 C   0  0  0  0  0  0  0  0  0  0  0  0
    0.5417   -3.0553    0.0000 C   0  0  0  0  0  0  0  0  0  0  0  0
    0.5417   -1.5553    0.0000 C   0  0  0  0  0  0  0  0  0  0  0  0
   -0.7573    0.6947    0.0000 N   0  0  0  0  0  0  0  0  0  0  0  0
    0.5417    1.4447    0.0000 C   0  0  0  0  0  0  0  0  0  0  0  0
    0.5417    2.9447    0.0000 C   0  0  0  0  0  0  0  0  0  0  0  0
   -0.7573    3.6947    0.0000 C   0  0  0  0  0  0  0  0  0  0  0  0
   -2.0564    2.9447    0.0000 C   0  0  0  0  0  0  0  0  0  0  0  0
   -2.0564    1.4447    0.0000 C   0  0  0  0  0  0  0  0  0  0  0  0
   -3.3554    0.6947    0.0000 O   0  0  0  0  0  0  0  0  0  0  0  0
    1.8407    3.6947    0.0000 C   0  0  0  0  0  0  0  0  0  0  0  0
  1  2  2  0  0  0  0
  2  3  1  0  0  0  0
  3  4  2  0  0  0  0
  4  5  1  0  0  0  0
  5  6  2  0  0  0  0
  6  1  1  0  0  0  0
  1  7  1  0  0  0  0
  7  8  1  0  0  0  0
  8  9  2  0  0  0  0
  9 10  1  0  0  0  0
 10 11  2  0  0  0  0
 11 12  1  0  0  0  0
 12  7  1  0  0  0  0
 12 13  2  0  0  0  0
  9 14  1  0  0  0  0
M  END
> <Name>
pirfenidone

$$$$

Generated by Molecular Materials Informatics

 36 38  0  0  0  0  0  0  0  0999 V2000
   -0.2222    2.1553    0.0000 O   0  0  0  0  0  0  0  0  0  0  0  0
   -1.4357    1.2736    0.0000 C   0  0  0  0  0  0  0  0  0  0  0  0
   -0.9722   -0.1530    0.0000 C   0  0  0  0  0  0  0  0  0  0  0  0
    0.5278   -0.1530    0.0000 C   0  0  0  0  0  0  0  0  0  0  0  0
    0.9913    1.2736    0.0000 C   0  0  0  0  0  0  0  0  0  0  0  0
   -2.3425   -0.7631    0.0000 C   0  0  0  0  0  0  0  0  0  0  0  0
   -1.1290   -1.6448    0.0000 F   0  0  0  0  0  0  0  0  0  0  0  0
    1.4095   -1.3665    0.0000 O   0  0  0  0  0  0  0  0  0  0  0  0
    2.4179    1.7371    0.0000 C   0  0  0  0  0  0  0  0  0  0  0  0
   -2.8623    1.7371    0.0000 N   0  0  0  0  0  0  0  0  0  0  0  0
   -3.1742    3.2043    0.0000 C   0  0  0  0  0  0  0  0  0  0  0  0
   -4.6007    3.6679    0.0000 C   0  0  0  0  0  0  0  0  0  0  0  0
   -5.7155    2.6642    0.0000 C   0  0  0  0  0  0  0  0  0  0  0  0
   -5.4036    1.1969    0.0000 N   0  0  0  0  0  0  0  0  0  0  0  0
   -3.9770    0.7334    0.0000 C   0  0  0  0  0  0  0  0  0  0  0  0
   -7.1420    3.1277    0.0000 O   0  0  0  0  0  0  0  0  0  0  0  0
   -3.6651   -0.7338    0.0000 O   0  0  0  0  0  0  0  0  0  0  0  0
    3.5326    0.7334    0.0000 O   0  0  0  0  0  0  0  0  0  0  0  0
    4.9592    1.1970    0.0000 P   0  0  0  0  0  0  0  0  0  0  0  0
    6.0739    0.1933    0.0000 O   0  0  0  0  0  0  0  0  0  0  0  0
    5.2711    2.6642    0.0000 N   0  0  0  0  0  0  0  0  0  0  0  0
    6.3858    1.6605    0.0000 O   0  0  0  0  0  0  0  0  0  0  0  0
    5.7620   -1.2740    0.0000 C   0  0  0  0  0  0  0  0  0  0  0  0
    4.3354   -1.7375    0.0000 C   0  0  0  0  0  0  0  0  0  0  0  0
    4.0236   -3.2047    0.0000 C   0  0  0  0  0  0  0  0  0  0  0  0
    5.1383   -4.2084    0.0000 C   0  0  0  0  0  0  0  0  0  0  0  0
    6.5649   -3.7449    0.0000 C   0  0  0  0  0  0  0  0  0  0  0  0
    6.8767   -2.2777    0.0000 C   0  0  0  0  0  0  0  0  0  0  0  0
    4.1563    3.6679    0.0000 C   0  0  0  0  0  0  0  0  0  0  0  0
    4.4682    5.1351    0.0000 C   0  0  0  0  0  0  0  0  0  0  0  0
    2.7298    3.2043    0.0000 C   0  0  0  0  0  0  0  0  0  0  0  0
    5.8948    5.5986    0.0000 O   0  0  0  0  0  0  0  0  0  0  0  0
    3.3535    6.1388    0.0000 O   0  0  0  0  0  0  0  0  0  0  0  0
    1.9269    5.6753    0.0000 C   0  0  0  0  0  0  0  0  0  0  0  0
    0.8122    6.6790    0.0000 C   0  0  0  0  0  0  0  0  0  0  0  0
    1.6150    4.2080    0.0000 C   0  0  0  0  0  0  0  0  0  0  0  0
  1  2  1  0  0  0  0
  2  3  1  0  0  0  0
  3  4  1  0  0  0  0
  4  5  1  0  0  0  0
  5  1  1  0  0  0  0
  3  6  1  6  0  0  0
  3  7  1  1  0  0  0
  4  8  1  1  0  0  0
  5  9  1  6  0  0  0
  2 10  1  6  0  0  0
 10 11  1  0  0  0  0
 11 12  2  0  0  0  0
 12 13  1  0  0  0  0
 13 14  1  0  0  0  0
 14 15  1  0  0  0  0
 15 10  1  0  0  0  0
 13 16  2  0  0  0  0
 15 17  2  0  0  0  0
  9 18  1  0  0  0  0
 18 19  1  0  0  0  0
 19 20  1  0  0  0  0
 19 21  1  0  0  0  0
 19 22  2  0  0  0  0
 20 23  1  0  0  0  0
 23 24  2  0  0  0  0
 24 25  1  0  0  0  0
 25 26  2  0  0  0  0
 26 27  1  0  0  0  0
 27 28  2  0  0  0  0
 28 23  1  0  0  0  0
 21 29  1  0  0  0  0
 29 30  1  1  0  0  0
 29 31  1  0  0  0  0
 30 32  2  0  0  0  0
 30 33  1  0  0  0  0
 33 34  1  0  0  0  0
 34 35  1  0  0  0  0
 34 36  1  0  0  0  0
M  END
> <Name>
sofosbuvir

$$$$

Generated by Molecular Materials Informatics

 65 74  0  0  0  0  0  0  0  0999 V2000
    1.8780    1.4531    0.0000 C   0  0  0  0  0  0  0  0  0  0  0  0
    0.6644    0.5714    0.0000 C   0  0  0  0  0  0  0  0  0  0  0  0
    1.1280   -0.8551    0.0000 C   0  0  0  0  0  0  0  0  0  0  0  0
    2.6280   -0.8551    0.0000 C   0  0  0  0  0  0  0  0  0  0  0  0
    3.0915    0.5714    0.0000 C   0  0  0  0  0  0  0  0  0  0  0  0
   -0.8028    0.8833    0.0000 C   0  0  0  0  0  0  0  0  0  0  0  0
   -1.8065   -0.2314    0.0000 C   0  0  0  0  0  0  0  0  0  0  0  0
   -1.3429   -1.6580    0.0000 C   0  0  0  0  0  0  0  0  0  0  0  0
    0.1243   -1.9699    0.0000 C   0  0  0  0  0  0  0  0  0  0  0  0
    3.6317   -1.9699    0.0000 C   0  0  0  0  0  0  0  0  0  0  0  0
    5.0989   -1.6580    0.0000 C   0  0  0  0  0  0  0  0  0  0  0  0
    5.5624   -0.2314    0.0000 C   0  0  0  0  0  0  0  0  0  0  0  0
    4.5587    0.8833    0.0000 C   0  0  0  0  0  0  0  0  0  0  0  0
    2.6280    2.7522    0.0000 F   0  0  0  0  0  0  0  0  0  0  0  0
    1.1280    2.7522    0.0000 F   0  0  0  0  0  0  0  0  0  0  0  0
   -3.2737    0.0805    0.0000 C   0  0  0  0  0  0  0  0  0  0  0  0
   -3.8838    1.4508    0.0000 C   0  0  0  0  0  0  0  0  0  0  0  0
   -5.3756    1.2940    0.0000 N   0  0  0  0  0  0  0  0  0  0  0  0
   -5.6875   -0.1732    0.0000 C   0  0  0  0  0  0  0  0  0  0  0  0
   -4.3884   -0.9232    0.0000 N   0  0  0  0  0  0  0  0  0  0  0  0
   -7.0578   -0.7833    0.0000 C   0  0  0  0  0  0  0  0  0  0  0  0
   -8.3568   -0.0333    0.0000 C   0  0  0  0  0  0  0  0  0  0  0  0
   -9.4715   -1.0370    0.0000 C   0  0  0  0  0  0  0  0  0  0  0  0
   -8.8614   -2.4074    0.0000 C   0  0  0  0  0  0  0  0  0  0  0  0
   -7.3696   -2.2506    0.0000 N   0  0  0  0  0  0  0  0  0  0  0  0
  -10.5862   -0.0333    0.0000 C   0  0  0  0  0  0  0  0  0  0  0  0
  -10.8981   -1.5006    0.0000 C   0  0  0  0  0  0  0  0  0  0  0  0
   -6.3659   -3.3653    0.0000 C   0  0  0  0  0  0  0  0  0  0  0  0
   -6.8295   -4.7919    0.0000 C   0  0  0  0  0  0  0  0  0  0  0  0
   -4.8987   -3.0534    0.0000 O   0  0  0  0  0  0  0  0  0  0  0  0
   -5.8258   -5.9066    0.0000 N   0  0  0  0  0  0  0  0  0  0  0  0
   -8.2967   -5.1037    0.0000 C   0  0  0  0  0  0  0  0  0  0  0  0
   -8.7602   -6.5303    0.0000 C   0  0  0  0  0  0  0  0  0  0  0  0
   -9.3004   -3.9890    0.0000 C   0  0  0  0  0  0  0  0  0  0  0  0
   -4.3585   -5.5947    0.0000 C   0  0  0  0  0  0  0  0  0  0  0  0
   -3.3549   -6.7094    0.0000 O   0  0  0  0  0  0  0  0  0  0  0  0
   -3.8950   -4.1681    0.0000 O   0  0  0  0  0  0  0  0  0  0  0  0
   -1.8876   -6.3976    0.0000 C   0  0  0  0  0  0  0  0  0  0  0  0
    7.0296    0.0805    0.0000 C   0  0  0  0  0  0  0  0  0  0  0  0
    8.0333   -1.0343    0.0000 C   0  0  0  0  0  0  0  0  0  0  0  0
    9.5006   -0.7224    0.0000 C   0  0  0  0  0  0  0  0  0  0  0  0
    9.9641    0.7042    0.0000 C   0  0  0  0  0  0  0  0  0  0  0  0
    8.9604    1.8189    0.0000 C   0  0  0  0  0  0  0  0  0  0  0  0
    7.4932    1.5071    0.0000 C   0  0  0  0  0  0  0  0  0  0  0  0
   10.7141   -1.6041    0.0000 N   0  0  0  0  0  0  0  0  0  0  0  0
   11.9276   -0.7224    0.0000 C   0  0  0  0  0  0  0  0  0  0  0  0
   11.4641    0.7042    0.0000 N   0  0  0  0  0  0  0  0  0  0  0  0
   13.3542   -1.1859    0.0000 C   0  0  0  0  0  0  0  0  0  0  0  0
   13.6661   -2.6531    0.0000 C   0  0  0  0  0  0  0  0  0  0  0  0
   15.0926   -3.1167    0.0000 C   0  0  0  0  0  0  0  0  0  0  0  0
   16.2074   -2.1130    0.0000 C   0  0  0  0  0  0  0  0  0  0  0  0
   15.8955   -0.6457    0.0000 C   0  0  0  0  0  0  0  0  0  0  0  0
   14.4689   -0.1822    0.0000 N   0  0  0  0  0  0  0  0  0  0  0  0
   15.3339   -2.2813    0.0000 C   0  0  0  0  0  0  0  0  0  0  0  0
   14.1570    1.2850    0.0000 C   0  0  0  0  0  0  0  0  0  0  0  0
   15.2718    2.2887    0.0000 C   0  0  0  0  0  0  0  0  0  0  0  0
   12.7305    1.7485    0.0000 O   0  0  0  0  0  0  0  0  0  0  0  0
   14.9599    3.7559    0.0000 N   0  0  0  0  0  0  0  0  0  0  0  0
   16.6983    1.8252    0.0000 C   0  0  0  0  0  0  0  0  0  0  0  0
   17.8131    2.8289    0.0000 C   0  0  0  0  0  0  0  0  0  0  0  0
   17.0102    0.3580    0.0000 C   0  0  0  0  0  0  0  0  0  0  0  0
   16.0746    4.7596    0.0000 C   0  0  0  0  0  0  0  0  0  0  0  0
   15.7627    6.2268    0.0000 O   0  0  0  0  0  0  0  0  0  0  0  0
   17.5012    4.2961    0.0000 O   0  0  0  0  0  0  0  0  0  0  0  0
   14.3362    6.6904    0.0000 C   0  0  0  0  0  0  0  0  0  0  0  0
  1  2  1  0  0  0  0
  2  3  2  0  0  0  0
  3  4  1  0  0  0  0
  4  5  2  0  0  0  0
  5  1  1  0  0  0  0
  2  6  1  0  0  0  0
  6  7  2  0  0  0  0
  7  8  1  0  0  0  0
  8  9  2  0  0  0  0
  9  3  1  0  0  0  0
  4 10  1  0  0  0  0
 10 11  2  0  0  0  0
 11 12  1  0  0  0  0
 12 13  2  0  0  0  0
 13  5  1  0  0  0  0
  1 14  1  0  0  0  0
  1 15  1  0  0  0  0
  7 16  1  0  0  0  0
 16 17  2  0  0  0  0
 17 18  1  0  0  0  0
 18 19  2  0  0  0  0
 19 20  1  0  0  0  0
 20 16  1  0  0  0  0
 21 19  1  1  0  0  0
 21 22  1  0  0  0  0
 22 23  1  0  0  0  0
 23 24  1  0  0  0  0
 24 25  1  0  0  0  0
 25 21  1  0  0  0  0
 23 26  1  0  0  0  0
 26 27  1  0  0  0  0
 27 23  1  0  0  0  0
 25 28  1  0  0  0  0
 29 28  1  1  0  0  0
 28 30  2  0  0  0  0
 29 31  1  0  0  0  0
 29 32  1  0  0  0  0
 32 33  1  0  0  0  0
 32 34  1  0  0  0  0
 31 35  1  0  0  0  0
 35 36  1  0  0  0  0
 35 37  2  0  0  0  0
 36 38  1  0  0  0  0
 12 39  1  0  0  0  0
 39 40  2  0  0  0  0
 40 41  1  0  0  0  0
 41 42  2  0  0  0  0
 42 43  1  0  0  0  0
 43 44  2  0  0  0  0
 44 39  1  0  0  0  0
 41 45  1  0  0  0  0
 45 46  1  0  0  0  0
 46 47  1  0  0  0  0
 47 42  1  0  0  0  0
 48 46  1  1  0  0  0
 48 49  1  0  0  0  0
 49 50  1  0  0  0  0
 50 51  1  0  0  0  0
 51 52  1  0  0  0  0
 52 53  1  0  0  0  0
 53 48  1  0  0  0  0
 49 54  1  1  0  0  0
 52 54  1  1  0  0  0
 53 55  1  0  0  0  0
 56 55  1  1  0  0  0
 55 57  2  0  0  0  0
 56 58  1  0  0  0  0
 56 59  1  0  0  0  0
 59 60  1  0  0  0  0
 59 61  1  0  0  0  0
 58 62  1  0  0  0  0
 62 63  1  0  0  0  0
 62 64  2  0  0  0  0
 63 65  1  0  0  0  0
M  END
> <Name>
ledipasvir

$$$$

Generated by Molecular Materials Informatics

 32 36  0  0  0  0  0  0  0  0999 V2000
    0.7402    1.4362    0.0000 C   0  0  0  0  0  0  0  0  0  0  0  0
    2.0916    2.0871    0.0000 C   0  0  0  0  0  0  0  0  0  0  0  0
    2.4254    3.5495    0.0000 N   0  0  0  0  0  0  0  0  0  0  0  0
    1.4902    4.7222    0.0000 C   0  0  0  0  0  0  0  0  0  0  0  0
   -0.0098    4.7222    0.0000 C   0  0  0  0  0  0  0  0  0  0  0  0
   -0.9451    3.5495    0.0000 N   0  0  0  0  0  0  0  0  0  0  0  0
   -0.6113    2.0871    0.0000 C   0  0  0  0  0  0  0  0  0  0  0  0
    3.2644    1.1518    0.0000 C   0  0  0  0  0  0  0  0  0  0  0  0
   -2.4075    3.8832    0.0000 C   0  0  0  0  0  0  0  0  0  0  0  0
   -2.9970    5.2625    0.0000 N   0  0  0  0  0  0  0  0  0  0  0  0
   -4.4910    5.1281    0.0000 C   0  0  0  0  0  0  0  0  0  0  0  0
   -4.8248    3.6657    0.0000 C   0  0  0  0  0  0  0  0  0  0  0  0
   -3.5371    2.8963    0.0000 O   0  0  0  0  0  0  0  0  0  0  0  0
   -5.5905    6.1483    0.0000 C   0  0  0  0  0  0  0  0  0  0  0  0
   -7.0239    5.7062    0.0000 C   0  0  0  0  0  0  0  0  0  0  0  0
   -7.3577    4.2438    0.0000 C   0  0  0  0  0  0  0  0  0  0  0  0
   -6.2581    3.2236    0.0000 C   0  0  0  0  0  0  0  0  0  0  0  0
   -8.1235    6.7265    0.0000 Cl  0  0  0  0  0  0  0  0  0  0  0  0
    3.8878    3.8832    0.0000 C   0  0  0  0  0  0  0  0  0  0  0  0
    4.3299    5.3166    0.0000 O   0  0  0  0  0  0  0  0  0  0  0  0
    4.9080    2.7837    0.0000 C   0  0  0  0  0  0  0  0  0  0  0  0
    4.4659    1.3503    0.0000 C   0  0  0  0  0  0  0  0  0  0  0  0
    5.4862    0.2507    0.0000 C   0  0  0  0  0  0  0  0  0  0  0  0
    6.9486    0.5845    0.0000 C   0  0  0  0  0  0  0  0  0  0  0  0
    7.3907    2.0179    0.0000 C   0  0  0  0  0  0  0  0  0  0  0  0
    6.3704    3.1175    0.0000 C   0  0  0  0  0  0  0  0  0  0  0  0
    5.0440   -1.1826    0.0000 C   0  0  0  0  0  0  0  0  0  0  0  0
    6.8126    4.5508    0.0000 N   0  0  0  0  0  0  0  0  0  0  0  0
    8.2321    5.0356    0.0000 N   0  0  0  0  0  0  0  0  0  0  0  0
    8.2096    6.5355    0.0000 C   0  0  0  0  0  0  0  0  0  0  0  0
    6.7763    6.9776    0.0000 C   0  0  0  0  0  0  0  0  0  0  0  0
    5.9128    5.7510    0.0000 N   0  0  0  0  0  0  0  0  0  0  0  0
  1  2  1  0  0  0  0
  2  3  1  0  0  0  0
  3  4  1  0  0  0  0
  4  5  1  0  0  0  0
  5  6  1  0  0  0  0
  6  7  1  0  0  0  0
  7  1  1  0  0  0  0
  2  8  1  6  0  0  0
  6  9  1  0  0  0  0
  9 10  2  0  0  0  0
 10 11  1  0  0  0  0
 11 12  2  0  0  0  0
 12 13  1  0  0  0  0
 13  9  1  0  0  0  0
 11 14  1  0  0  0  0
 14 15  2  0  0  0  0
 15 16  1  0  0  0  0
 16 17  2  0  0  0  0
 17 12  1  0  0  0  0
 15 18  1  0  0  0  0
  3 19  1  0  0  0  0
 19 20  2  0  0  0  0
 19 21  1  0  0  0  0
 21 22  2  0  0  0  0
 22 23  1  0  0  0  0
 23 24  2  0  0  0  0
 24 25  1  0  0  0  0
 25 26  2  0  0  0  0
 26 21  1  0  0  0  0
 23 27  1  0  0  0  0
 26 28  1  0  0  0  0
 28 29  2  0  0  0  0
 29 30  1  0  0  0  0
 30 31  2  0  0  0  0
 31 32  1  0  0  0  0
 32 28  1  0  0  0  0
M  END
> <Name>
suvorexant

$$$$

Generated by Molecular Materials Informatics

 28 30  0  0  0  0  0  0  0  0999 V2000
   -2.0105   -1.1147    0.0000 C   0  0  0  0  0  0  0  0  0  0  0  0
   -3.3095   -1.8647    0.0000 C   0  0  0  0  0  0  0  0  0  0  0  0
   -3.3095   -3.3647    0.0000 C   0  0  0  0  0  0  0  0  0  0  0  0
   -2.0105   -4.1147    0.0000 C   0  0  0  0  0  0  0  0  0  0  0  0
   -0.7114   -3.3647    0.0000 C   0  0  0  0  0  0  0  0  0  0  0  0
   -0.7114   -1.8647    0.0000 C   0  0  0  0  0  0  0  0  0  0  0  0
   -4.6085   -4.1147    0.0000 O   0  0  0  0  0  0  0  0  0  0  0  0
   -5.9076   -3.3647    0.0000 C   0  0  0  0  0  0  0  0  0  0  0  0
   -7.2066   -4.1147    0.0000 C   0  0  0  0  0  0  0  0  0  0  0  0
    0.5876   -1.1147    0.0000 C   0  0  0  0  0  0  0  0  0  0  0  0
    1.8866   -1.8647    0.0000 C   0  0  0  0  0  0  0  0  0  0  0  0
    1.8866   -3.3647    0.0000 C   0  0  0  0  0  0  0  0  0  0  0  0
    3.1857   -4.1147    0.0000 C   0  0  0  0  0  0  0  0  0  0  0  0
    4.4847   -3.3647    0.0000 C   0  0  0  0  0  0  0  0  0  0  0  0
    4.4847   -1.8647    0.0000 C   0  0  0  0  0  0  0  0  0  0  0  0
    3.1857   -1.1147    0.0000 C   0  0  0  0  0  0  0  0  0  0  0  0
    0.5876   -4.1147    0.0000 Cl  0  0  0  0  0  0  0  0  0  0  0  0
    5.7838   -1.1147    0.0000 C   0  0  0  0  0  0  0  0  0  0  0  0
    7.0828   -1.8647    0.0000 C   0  0  0  0  0  0  0  0  0  0  0  0
    8.3818   -1.1147    0.0000 C   0  0  0  0  0  0  0  0  0  0  0  0
    8.3818    0.3853    0.0000 C   0  0  0  0  0  0  0  0  0  0  0  0
    7.0828    1.1353    0.0000 C   0  0  0  0  0  0  0  0  0  0  0  0
    5.7838    0.3853    0.0000 O   0  0  0  0  0  0  0  0  0  0  0  0
    7.0828   -3.3647    0.0000 O   0  0  0  0  0  0  0  0  0  0  0  0
    9.6809   -1.8647    0.0000 O   0  0  0  0  0  0  0  0  0  0  0  0
    9.6809    1.1353    0.0000 O   0  0  0  0  0  0  0  0  0  0  0  0
    7.0828    2.6353    0.0000 C   0  0  0  0  0  0  0  0  0  0  0  0
    5.7838    3.3853    0.0000 O   0  0  0  0  0  0  0  0  0  0  0  0
  1  2  2  0  0  0  0
  2  3  1  0  0  0  0
  3  4  2  0  0  0  0
  4  5  1  0  0  0  0
  5  6  2  0  0  0  0
  6  1  1  0  0  0  0
  3  7  1  0  0  0  0
  7  8  1  0  0  0  0
  8  9  1  0  0  0  0
  6 10  1  0  0  0  0
 10 11  1  0  0  0  0
 11 12  2  0  0  0  0
 12 13  1  0  0  0  0
 13 14  2  0  0  0  0
 14 15  1  0  0  0  0
 15 16  2  0  0  0  0
 16 11  1  0  0  0  0
 12 17  1  0  0  0  0
 18 15  1  6  0  0  0
 18 19  1  0  0  0  0
 19 20  1  0  0  0  0
 20 21  1  0  0  0  0
 21 22  1  0  0  0  0
 22 23  1  0  0  0  0
 23 18  1  0  0  0  0
 19 24  1  1  0  0  0
 20 25  1  6  0  0  0
 21 26  1  1  0  0  0
 22 27  1  6  0  0  0
 27 28  1  0  0  0  0
M  END
> <Name>
dapagliflozin

$$$$

Generated by Molecular Materials Informatics

 31 35  0  0  0  0  0  0  0  0999 V2000
   -5.6106    0.3537    0.0000 C   0  0  0  0  0  0  0  0  0  0  0  0
   -6.9097   -0.3963    0.0000 C   0  0  0  0  0  0  0  0  0  0  0  0
   -6.9097   -1.8963    0.0000 C   0  0  0  0  0  0  0  0  0  0  0  0
   -5.6106   -2.6463    0.0000 C   0  0  0  0  0  0  0  0  0  0  0  0
   -4.3116   -1.8962    0.0000 C   0  0  0  0  0  0  0  0  0  0  0  0
   -4.3116   -0.3963    0.0000 C   0  0  0  0  0  0  0  0  0  0  0  0
   -3.0125   -2.6463    0.0000 N   0  0  0  0  0  0  0  0  0  0  0  0
   -1.7135   -1.8963    0.0000 C   0  0  0  0  0  0  0  0  0  0  0  0
   -1.7135   -0.3962    0.0000 N   0  0  0  0  0  0  0  0  0  0  0  0
   -3.0125    0.3537    0.0000 C   0  0  0  0  0  0  0  0  0  0  0  0
   -0.4145    0.3538    0.0000 C   0  0  0  0  0  0  0  0  0  0  0  0
    0.8846   -0.3962    0.0000 C   0  0  0  0  0  0  0  0  0  0  0  0
    2.1836    0.3538    0.0000 C   0  0  0  0  0  0  0  0  0  0  0  0
    2.1836    1.8538    0.0000 C   0  0  0  0  0  0  0  0  0  0  0  0
    0.8846    2.6038    0.0000 C   0  0  0  0  0  0  0  0  0  0  0  0
   -0.4145    1.8538    0.0000 C   0  0  0  0  0  0  0  0  0  0  0  0
   -5.6106    1.8537    0.0000 F   0  0  0  0  0  0  0  0  0  0  0  0
   -3.0125    1.8537    0.0000 O   0  0  0  0  0  0  0  0  0  0  0  0
   -0.4145   -2.6463    0.0000 C   0  0  0  0  0  0  0  0  0  0  0  0
   -0.4145   -4.1463    0.0000 N   0  0  0  0  0  0  0  0  0  0  0  0
    0.8846   -1.8963    0.0000 C   0  0  0  0  0  0  0  0  0  0  0  0
    2.1836   -2.6463    0.0000 C   0  0  0  0  0  0  0  0  0  0  0  0
    0.8846   -4.8963    0.0000 C   0  0  0  0  0  0  0  0  0  0  0  0
    0.8846   -6.3963    0.0000 C   0  0  0  0  0  0  0  0  0  0  0  0
    2.1836   -7.1463    0.0000 C   0  0  0  0  0  0  0  0  0  0  0  0
    3.4826   -6.3963    0.0000 N   0  0  0  0  0  0  0  0  0  0  0  0
    3.4826   -4.8963    0.0000 C   0  0  0  0  0  0  0  0  0  0  0  0
    2.1836   -4.1463    0.0000 N   0  0  0  0  0  0  0  0  0  0  0  0
   -0.2302   -7.3999    0.0000 N   0  0  0  0  0  0  0  0  0  0  0  0
    0.3800   -8.7703    0.0000 C   0  0  0  0  0  0  0  0  0  0  0  0
    1.8717   -8.6135    0.0000 N   0  0  0  0  0  0  0  0  0  0  0  0
  1  2  2  0  0  0  0
  2  3  1  0  0  0  0
  3  4  2  0  0  0  0
  4  5  1  0  0  0  0
  5  6  2  0  0  0  0
  6  1  1  0  0  0  0
  5  7  1  0  0  0  0
  7  8  2  0  0  0  0
  8  9  1  0  0  0  0
  9 10  1  0  0  0  0
 10  6  1  0  0  0  0
  9 11  1  0  0  0  0
 11 12  2  0  0  0  0
 12 13  1  0  0  0  0
 13 14  2  0  0  0  0
 14 15  1  0  0  0  0
 15 16  2  0  0  0  0
 16 11  1  0  0  0  0
  1 17  1  0  0  0  0
 10 18  2  0  0  0  0
  8 19  1  0  0  0  0
 19 20  1  6  0  0  0
 19 21  1  0  0  0  0
 21 22  1  0  0  0  0
 20 23  1  0  0  0  0
 23 24  2  0  0  0  0
 24 25  1  0  0  0  0
 25 26  2  0  0  0  0
 26 27  1  0  0  0  0
 27 28  2  0  0  0  0
 28 23  1  0  0  0  0
 24 29  1  0  0  0  0
 29 30  2  0  0  0  0
 30 31  1  0  0  0  0
 31 25  1  0  0  0  0
M  END
> <Name>
idelalisib

$$$$

Generated by Molecular Materials Informatics

 31 34  0  0  0  0  0  0  0  0999 V2000
   -1.6519   -1.1786    0.0000 C   0  0  0  0  0  0  0  0  0  0  0  0
   -0.9019   -2.4776    0.0000 N   0  0  0  0  0  0  0  0  0  0  0  0
    0.5981   -2.4776    0.0000 C   0  0  0  0  0  0  0  0  0  0  0  0
    1.3481   -1.1786    0.0000 C   0  0  0  0  0  0  0  0  0  0  0  0
    0.5981    0.1204    0.0000 C   0  0  0  0  0  0  0  0  0  0  0  0
   -0.9019    0.1204    0.0000 C   0  0  0  0  0  0  0  0  0  0  0  0
   -3.1519   -1.1786    0.0000 C   0  0  0  0  0  0  0  0  0  0  0  0
   -4.0336    0.0349    0.0000 N   0  0  0  0  0  0  0  0  0  0  0  0
   -5.4601   -0.4286    0.0000 N   0  0  0  0  0  0  0  0  0  0  0  0
   -5.4601   -1.9286    0.0000 N   0  0  0  0  0  0  0  0  0  0  0  0
   -4.0336   -2.3921    0.0000 N   0  0  0  0  0  0  0  0  0  0  0  0
   -6.6737   -2.8103    0.0000 C   0  0  0  0  0  0  0  0  0  0  0  0
    2.8481   -1.1786    0.0000 C   0  0  0  0  0  0  0  0  0  0  0  0
    3.5981   -2.4776    0.0000 C   0  0  0  0  0  0  0  0  0  0  0  0
    5.0981   -2.4776    0.0000 C   0  0  0  0  0  0  0  0  0  0  0  0
    5.8481   -1.1786    0.0000 C   0  0  0  0  0  0  0  0  0  0  0  0
    5.0981    0.1204    0.0000 C   0  0  0  0  0  0  0  0  0  0  0  0
    3.5981    0.1204    0.0000 C   0  0  0  0  0  0  0  0  0  0  0  0
    7.3481   -1.1786    0.0000 N   0  0  0  0  0  0  0  0  0  0  0  0
    8.2298   -2.3921    0.0000 C   0  0  0  0  0  0  0  0  0  0  0  0
    9.6564   -1.9286    0.0000 C   0  0  0  0  0  0  0  0  0  0  0  0
    9.6564   -0.4286    0.0000 O   0  0  0  0  0  0  0  0  0  0  0  0
    8.2298    0.0349    0.0000 C   0  0  0  0  0  0  0  0  0  0  0  0
    2.8481   -3.7767    0.0000 F   0  0  0  0  0  0  0  0  0  0  0  0
    7.7663    1.4615    0.0000 O   0  0  0  0  0  0  0  0  0  0  0  0
   10.8699   -2.8103    0.0000 C   0  0  0  0  0  0  0  0  0  0  0  0
   10.7131   -4.3021    0.0000 O   0  0  0  0  0  0  0  0  0  0  0  0
    9.3428   -4.9122    0.0000 P   0  0  0  0  0  0  0  0  0  0  0  0
    9.9529   -6.2825    0.0000 O   0  5  0  0  0  0  0  0  0  0  0  0
    7.9725   -5.5223    0.0000 O   0  0  0  0  0  0  0  0  0  0  0  0
    8.7327   -3.5418    0.0000 O   0  5  0  0  0  0  0  0  0  0  0  0
  1  2  2  0  0  0  0
  2  3  1  0  0  0  0
  3  4  2  0  0  0  0
  4  5  1  0  0  0  0
  5  6  2  0  0  0  0
  6  1  1  0  0  0  0
  1  7  1  0  0  0  0
  7  8  1  0  0  0  0
  8  9  2  0  0  0  0
  9 10  1  0  0  0  0
 10 11  1  0  0  0  0
 11  7  2  0  0  0  0
 10 12  1  0  0  0  0
  4 13  1  0  0  0  0
 13 14  2  0  0  0  0
 14 15  1  0  0  0  0
 15 16  2  0  0  0  0
 16 17  1  0  0  0  0
 17 18  2  0  0  0  0
 18 13  1  0  0  0  0
 16 19  1  0  0  0  0
 19 20  1  0  0  0  0
 20 21  1  0  0  0  0
 21 22  1  0  0  0  0
 22 23  1  0  0  0  0
 23 19  1  0  0  0  0
 14 24  1  0  0  0  0
 23 25  2  0  0  0  0
 21 26  1  1  0  0  0
 26 27  1  0  0  0  0
 27 28  1  0  0  0  0
 28 29  1  0  0  0  0
 28 30  2  0  0  0  0
 28 31  1  0  0  0  0
M  CHG  2  29  -1  31  -1
M  END
> <Name>
tedizolid

$$$$

Generated by Molecular Materials Informatics

 40 44  0  0  0  0  0  0  0  0999 V2000
    1.6028    0.3939    0.0000 C   0  0  0  0  0  0  0  0  0  0  0  0
    0.3038   -0.3561    0.0000 C   0  0  0  0  0  0  0  0  0  0  0  0
    0.3038   -1.8561    0.0000 C   0  0  0  0  0  0  0  0  0  0  0  0
    1.6028   -2.6061    0.0000 C   0  0  0  0  0  0  0  0  0  0  0  0
    2.9019   -1.8561    0.0000 C   0  0  0  0  0  0  0  0  0  0  0  0
    2.9019   -0.3561    0.0000 C   0  0  0  0  0  0  0  0  0  0  0  0
    4.2009   -2.6061    0.0000 C   0  0  0  0  0  0  0  0  0  0  0  0
    5.4999   -1.8561    0.0000 C   0  0  0  0  0  0  0  0  0  0  0  0
    5.4999   -0.3561    0.0000 C   0  0  0  0  0  0  0  0  0  0  0  0
    4.2009    0.3939    0.0000 C   0  0  0  0  0  0  0  0  0  0  0  0
   -1.1228    0.1074    0.0000 C   0  0  0  0  0  0  0  0  0  0  0  0
   -2.0045   -1.1061    0.0000 O   0  0  0  0  0  0  0  0  0  0  0  0
   -1.1228   -2.3196    0.0000 C   0  0  0  0  0  0  0  0  0  0  0  0
    1.6028    1.8939    0.0000 C   0  0  0  0  0  0  0  0  0  0  0  0
    0.1470    1.1357    0.0000 H   0  0  0  0  0  0  0  0  0  0  0  0
    0.1470   -3.3479    0.0000 H   0  0  0  0  0  0  0  0  0  0  0  0
    2.9019   -3.3561    0.0000 H   0  0  0  0  0  0  0  0  0  0  0  0
    2.9018    1.1439    0.0000 H   0  0  0  0  0  0  0  0  0  0  0  0
   -1.5863    1.5340    0.0000 C   0  0  0  0  0  0  0  0  0  0  0  0
   -1.5863   -3.7462    0.0000 O   0  0  0  0  0  0  0  0  0  0  0  0
    6.7990   -2.6061    0.0000 N   0  0  0  0  0  0  0  0  0  0  0  0
    8.0980   -1.8561    0.0000 C   0  0  0  0  0  0  0  0  0  0  0  0
    9.3970   -2.6061    0.0000 O   0  0  0  0  0  0  0  0  0  0  0  0
    8.0980   -0.3561    0.0000 O   0  0  0  0  0  0  0  0  0  0  0  0
   10.6961   -1.8561    0.0000 C   0  0  0  0  0  0  0  0  0  0  0  0
   11.9951   -2.6061    0.0000 C   0  0  0  0  0  0  0  0  0  0  0  0
    0.3038    2.6439    0.0000 C   0  0  0  0  0  0  0  0  0  0  0  0
    0.3038    4.1439    0.0000 C   0  0  0  0  0  0  0  0  0  0  0  0
    1.6028    4.8939    0.0000 C   0  0  0  0  0  0  0  0  0  0  0  0
    1.6028    6.3939    0.0000 C   0  0  0  0  0  0  0  0  0  0  0  0
    0.3038    7.1439    0.0000 C   0  0  0  0  0  0  0  0  0  0  0  0
   -0.9953    6.3939    0.0000 C   0  0  0  0  0  0  0  0  0  0  0  0
   -0.9953    4.8939    0.0000 N   0  0  0  0  0  0  0  0  0  0  0  0
    0.3038    8.6439    0.0000 C   0  0  0  0  0  0  0  0  0  0  0  0
    1.6028    9.3939    0.0000 C   0  0  0  0  0  0  0  0  0  0  0  0
    1.6028   10.8939    0.0000 C   0  0  0  0  0  0  0  0  0  0  0  0
    0.3038   11.6439    0.0000 C   0  0  0  0  0  0  0  0  0  0  0  0
   -0.9953   10.8939    0.0000 C   0  0  0  0  0  0  0  0  0  0  0  0
   -0.9953    9.3939    0.0000 C   0  0  0  0  0  0  0  0  0  0  0  0
    2.9018   11.6439    0.0000 F   0  0  0  0  0  0  0  0  0  0  0  0
  1  2  1  0  0  0  0
  2  3  1  0  0  0  0
  3  4  1  0  0  0  0
  4  5  1  0  0  0  0
  5  6  1  0  0  0  0
  6  1  1  0  0  0  0
  5  7  1  0  0  0  0
  7  8  1  0  0  0  0
  8  9  1  0  0  0  0
  9 10  1  0  0  0  0
 10  6  1  0  0  0  0
  2 11  1  0  0  0  0
 11 12  1  0  0  0  0
 12 13  1  0  0  0  0
 13  3  1  0  0  0  0
  1 14  1  1  0  0  0
  2 15  1  6  0  0  0
  3 16  1  6  0  0  0
  5 17  1  6  0  0  0
  6 18  1  1  0  0  0
 11 19  1  6  0  0  0
 13 20  2  0  0  0  0
  8 21  1  1  0  0  0
 21 22  1  0  0  0  0
 22 23  1  0  0  0  0
 22 24  2  0  0  0  0
 23 25  1  0  0  0  0
 25 26  1  0  0  0  0
 14 27  2  0  0  0  0
 27 28  1  0  0  0  0
 28 29  2  0  0  0  0
 29 30  1  0  0  0  0
 30 31  2  0  0  0  0
 31 32  1  0  0  0  0
 32 33  2  0  0  0  0
 33 28  1  0  0  0  0
 31 34  1  0  0  0  0
 34 35  2  0  0  0  0
 35 36  1  0  0  0  0
 36 37  2  0  0  0  0
 37 38  1  0  0  0  0
 38 39  2  0  0  0  0
 39 34  1  0  0  0  0
 36 40  1  0  0  0  0
M  END
> <Name>
vorapaxar

$$$$

Generated by Molecular Materials Informatics

 38 41  0  0  0  0  0  0  0  0999 V2000
   -5.4839   -1.5950    0.0000 C   0  0  0  0  0  0  0  0  0  0  0  0
   -6.7829   -2.3450    0.0000 C   0  0  0  0  0  0  0  0  0  0  0  0
   -6.7829   -3.8450    0.0000 N   0  0  0  0  0  0  0  0  0  0  0  0
   -5.4839   -4.5950    0.0000 C   0  0  0  0  0  0  0  0  0  0  0  0
   -4.1849   -3.8450    0.0000 C   0  0  0  0  0  0  0  0  0  0  0  0
   -4.1849   -2.3450    0.0000 C   0  0  0  0  0  0  0  0  0  0  0  0
   -2.8858   -1.5950    0.0000 C   0  0  0  0  0  0  0  0  0  0  0  0
   -1.5868   -2.3450    0.0000 C   0  0  0  0  0  0  0  0  0  0  0  0
   -0.2878   -1.5950    0.0000 C   0  0  0  0  0  0  0  0  0  0  0  0
   -0.2878   -0.0950    0.0000 C   0  0  0  0  0  0  0  0  0  0  0  0
   -1.5868    0.6550    0.0000 C   0  0  0  0  0  0  0  0  0  0  0  0
   -2.8858   -0.0950    0.0000 C   0  0  0  0  0  0  0  0  0  0  0  0
   -1.5868    2.1550    0.0000 O   0  0  0  0  0  0  0  0  0  0  0  0
   -2.8858    2.9050    0.0000 C   0  0  0  0  0  0  0  0  0  0  0  0
   -2.8858    4.4050    0.0000 C   0  0  0  0  0  0  0  0  0  0  0  0
   -4.1849    2.1550    0.0000 C   0  0  0  0  0  0  0  0  0  0  0  0
   -1.5868   -3.8450    0.0000 C   0  0  0  0  0  0  0  0  0  0  0  0
    1.0113    0.6550    0.0000 N   0  0  0  0  0  0  0  0  0  0  0  0
    2.3103   -0.0950    0.0000 C   0  0  0  0  0  0  0  0  0  0  0  0
    2.3103   -1.5950    0.0000 N   0  0  0  0  0  0  0  0  0  0  0  0
    3.6094   -2.3450    0.0000 C   0  0  0  0  0  0  0  0  0  0  0  0
    4.9084   -1.5950    0.0000 C   0  0  0  0  0  0  0  0  0  0  0  0
    4.9084   -0.0950    0.0000 C   0  0  0  0  0  0  0  0  0  0  0  0
    3.6094    0.6550    0.0000 N   0  0  0  0  0  0  0  0  0  0  0  0
    6.2074   -2.3450    0.0000 Cl  0  0  0  0  0  0  0  0  0  0  0  0
    6.2074    0.6550    0.0000 N   0  0  0  0  0  0  0  0  0  0  0  0
    7.5065   -0.0950    0.0000 C   0  0  0  0  0  0  0  0  0  0  0  0
    7.5065   -1.5950    0.0000 C   0  0  0  0  0  0  0  0  0  0  0  0
    8.8055   -2.3450    0.0000 C   0  0  0  0  0  0  0  0  0  0  0  0
   10.1046   -1.5950    0.0000 C   0  0  0  0  0  0  0  0  0  0  0  0
   10.1046   -0.0950    0.0000 C   0  0  0  0  0  0  0  0  0  0  0  0
    8.8055    0.6550    0.0000 C   0  0  0  0  0  0  0  0  0  0  0  0
    8.8055    2.1550    0.0000 S   0  0  0  0  0  0  0  0  0  0  0  0
    8.8055    3.6550    0.0000 C   0  0  0  0  0  0  0  0  0  0  0  0
   10.3055    2.1550    0.0000 O   0  0  0  0  0  0  0  0  0  0  0  0
    7.3055    2.1550    0.0000 O   0  0  0  0  0  0  0  0  0  0  0  0
   10.1045    4.4050    0.0000 C   0  0  0  0  0  0  0  0  0  0  0  0
    7.5065    4.4050    0.0000 C   0  0  0  0  0  0  0  0  0  0  0  0
  1  2  1  0  0  0  0
  2  3  1  0  0  0  0
  3  4  1  0  0  0  0
  4  5  1  0  0  0  0
  5  6  1  0  0  0  0
  6  1  1  0  0  0  0
  6  7  1  0  0  0  0
  7  8  2  0  0  0  0
  8  9  1  0  0  0  0
  9 10  2  0  0  0  0
 10 11  1  0  0  0  0
 11 12  2  0  0  0  0
 12  7  1  0  0  0  0
 11 13  1  0  0  0  0
 13 14  1  0  0  0  0
 14 15  1  0  0  0  0
 14 16  1  0  0  0  0
  8 17  1  0  0  0  0
 10 18  1  0  0  0  0
 18 19  1  0  0  0  0
 19 20  2  0  0  0  0
 20 21  1  0  0  0  0
 21 22  2  0  0  0  0
 22 23  1  0  0  0  0
 23 24  2  0  0  0  0
 24 19  1  0  0  0  0
 22 25  1  0  0  0  0
 23 26  1  0  0  0  0
 26 27  1  0  0  0  0
 27 28  2  0  0  0  0
 28 29  1  0  0  0  0
 29 30  2  0  0  0  0
 30 31  1  0  0  0  0
 31 32  2  0  0  0  0
 32 27  1  0  0  0  0
 32 33  1  0  0  0  0
 33 34  1  0  0  0  0
 33 35  2  0  0  0  0
 33 36  2  0  0  0  0
 34 37  1  0  0  0  0
 34 38  1  0  0  0  0
M  END
> <Name>
ceritinib

$$$$

Generated by Molecular Materials Informatics

 15 15  0  0  0  0  0  0  0  0999 V2000
    0.3125    2.8517    0.0000 C   0  0  0  0  0  0  0  0  0  0  0  0
   -0.9865    2.1017    0.0000 C   0  0  0  0  0  0  0  0  0  0  0  0
   -0.9865    0.6017    0.0000 C   0  0  0  0  0  0  0  0  0  0  0  0
    0.3125   -0.1483    0.0000 C   0  0  0  0  0  0  0  0  0  0  0  0
    1.6115    0.6017    0.0000 C   0  0  0  0  0  0  0  0  0  0  0  0
    1.6115    2.1017    0.0000 C   0  0  0  0  0  0  0  0  0  0  0  0
   -2.2856    2.8517    0.0000 O   0  0  0  0  0  0  0  0  0  0  0  0
   -2.2856   -0.1483    0.0000 O   0  0  0  0  0  0  0  0  0  0  0  0
    2.9106    2.8517    0.0000 C   0  0  0  0  0  0  0  0  0  0  0  0
    4.2096    2.1017    0.0000 C   0  0  0  0  0  0  0  0  0  0  0  0
    2.9106    4.3517    0.0000 O   0  0  0  0  0  0  0  0  0  0  0  0
    5.5087    2.8517    0.0000 C   0  0  0  0  0  0  0  0  0  0  0  0
    4.2096    0.6017    0.0000 N   0  0  0  0  0  0  0  0  0  0  0  0
    6.8077    2.1017    0.0000 O   0  0  0  0  0  0  0  0  0  0  0  0
    5.5087    4.3517    0.0000 O   0  0  0  0  0  0  0  0  0  0  0  0
  1  2  2  0  0  0  0
  2  3  1  0  0  0  0
  3  4  2  0  0  0  0
  4  5  1  0  0  0  0
  5  6  2  0  0  0  0
  6  1  1  0  0  0  0
  2  7  1  0  0  0  0
  3  8  1  0  0  0  0
  6  9  1  0  0  0  0
  9 10  1  0  0  0  0
  9 11  1  1  0  0  0
 10 12  1  0  0  0  0
 10 13  1  1  0  0  0
 12 14  1  0  0  0  0
 12 15  2  0  0  0  0
M  END
> <Name>
droxidopa

$$$$
